   ---   128   cards of disk file read into card cache cells  1   onward.
 <===> Done with  "/"-card sorting by data class.    Remember that the source file appears different from interpreted input data.
Alternative Transients Program (ATP),  GNU Linux or DOS.  All rights reserved by Can/Am user group of Portland, Oregon, USA.
 Date (dd-mth-yy) and time of day (hh.mm.ss) = 23-Jan-20  16:49:30   Name of disk plot file is  estudio_v2.txt
Consult the 860-page ATP Rule Book of the Can/Am EMTP User Group in Portland,  Oregon, USA.  Source code date is 10 April 2010.
Total size of LABCOM tables = 10913313 INTEGER words.  31 VARDIM  List Sizes follow:  6002  10K  192K  900  420K  1200  15K
  120K  2250  3800  720  2K  72800  510  90K  800  90  254  120K  100K  3K  15K  192K  120  45K  260K  600  210K  1100  19  200
--------------------------------------------------+--------------------------------------------------------------------------------
Descriptive interpretation of input data cards.   |  Input data card images are shown below, all 80 columns, character by character
                                                  0         1         2         3         4         5         6         7         8
                                                  012345678901234567890123456789012345678901234567890123456789012345678901234567890
--------------------------------------------------+--------------------------------------------------------------------------------
Comment card.   KOMPAR > 0.                       |C data:ESTUDIO_V2.ATP
Marker card preceding new EMTP data case.         |BEGIN NEW DATA CASE
New power frequency  STATFR = 6.00000000E+01 Hz.  |POWER FREQUENCY                      60.
Comment card.   KOMPAR > 0.                       |C  dT  >< Tmax >< Xopt >< Copt >
Misc. data.     5.000E-05   1.000E+00   6.000E+01 |50.0E-061.00         60.     60.
Misc. data.    500    1  1  1  1  0  0  1  0  0   |     500       1       1       1       1       0       0       1       0
Comment card.   KOMPAR > 0.                       |C       1       1       0       0       1      -1
Comment card.   KOMPAR > 0.                       |C        1         2         3         4         5         6         7         8
Comment card.   KOMPAR > 0.                       |C 345678901234567890123456789012345678901234567890123456789012345678901234567890
Comment card.   KOMPAR > 0.                       |C ---------------------------------------------
Comment card.   KOMPAR > 0.                       |C 35 km
Comment card.   KOMPAR > 0.                       |C ---------------------------------------------
New MOLDAT = 1     (data vintage).                |$VINTAGE, 1
Comment card.   KOMPAR > 0.                       |C < n1 >< n2 >
Comment card.   KOMPAR > 0.                       |C                         <    R     ><     L    ><    C     ><     Leng >   030
 4.208E-01 1.534E+00 3.239E+00 6.882E+02 1.863E-03|-1INLA  LPXA              0.42076     1.5341      3.239               315. 0
 1.565E-02 3.128E-01 5.253E+00 2.440E+02 1.071E-03|-2INLB  LPXB              0.015649    0.31277     5.2532              315. 0
3rd or later transposed distributed phase.        |-3INLC  LPXC
Comment card.   KOMPAR > 0.                       |C ---------------------------------------------
Comment card.   KOMPAR > 0.                       |C 140km
Comment card.   KOMPAR > 0.                       |C ---------------------------------------------
Comment card.   KOMPAR > 0.                       |C < n1 >< n2 >
Comment card.   KOMPAR > 0.                       |C                         <    R     ><     L    ><    C     ><     Leng >   030
 4.208E-01 1.534E+00 3.239E+00 6.882E+02 2.070E-04|-1LPXA  L100A             0.42076     1.5341      3.239                35. 0
 1.565E-02 3.128E-01 5.253E+00 2.440E+02 1.190E-04|-2LPXB  L100B             0.015649    0.31277     5.2532               35. 0
3rd or later transposed distributed phase.        |-3LPXC  L100C
New MOLDAT = 0     (data vintage).                |$VINTAGE, 0
Comment card.   KOMPAR > 0.                       |C ---------------------------------------------
Comment card.   KOMPAR > 0.                       |C TRANSFORMADORES
Comment card.   KOMPAR > 0.                       |C ---------------------------------------------
Comment card.   KOMPAR > 0.                       |C < n1 >< n2 ><ref1><ref2>< R  >< A  >< T  ><Leng><><>0
Comment card.   KOMPAR > 0.                       |C TF 1
Comment card.   KOMPAR > 0.                       |C TRANSFORMER                         Trafol  1.E6                             0
Comment card.   KOMPAR > 0.                       |C    0.559883169       795.94077
Comment card.   KOMPAR > 0.                       |C    0.671578988      909.646594
Comment card.   KOMPAR > 0.                       |C           9999
Comment card.   KOMPAR > 0.                       |C 1FA1   FB1               .26531 .3382  500.0
Comment card.   KOMPAR > 0.                       |C 2FA2                       .001 .0846  13.80
Comment card.   KOMPAR > 0.                       |C TF 2
Comment card.   KOMPAR > 0.                       |C TRANSFORMER                         Trafo2  1.E6                             0
Comment card.   KOMPAR > 0.                       |C    0.559883169       795.94077
Comment card.   KOMPAR > 0.                       |C    0.671578988      909.646594
Comment card.   KOMPAR > 0.                       |C           9999
Comment card.   KOMPAR > 0.                       |C 1FB1   FC1               .26531 .3382  500.0
Comment card.   KOMPAR > 0.                       |C 2FB2                       .001 .0846  13.80
Comment card.   KOMPAR > 0.                       |C TF 3
Comment card.   KOMPAR > 0.                       |C TRANSFORMER                         Trafo3  1.E6                             0
Comment card.   KOMPAR > 0.                       |C    0.559883169       795.94077
Comment card.   KOMPAR > 0.                       |C    0.671578988      909.646594
Comment card.   KOMPAR > 0.                       |C           9999
Comment card.   KOMPAR > 0.                       |C 1FC1   FA1               .26531 .3382  500.0
Comment card.   KOMPAR > 0.                       |C 2FC2                       .001 .0846  13.80
New MOLDAT = 1     (data vintage).                |$VINTAGE,1
Comment card.   KOMPAR > 0.                       |C ---------------------------------------------
Comment card.   KOMPAR > 0.                       |C CARGAS
Comment card.   KOMPAR > 0.                       |C ---------------------------------------------
Comment card.   KOMPAR > 0.                       |C        1         2         3         4         5         6         7         8
Comment card.   KOMPAR > 0.                       |C 345678901234567890123456789012345678901234567890123456789012345678901234567890
Comment card.   KOMPAR > 0.                       |C < n1 >< n2 ><ref1><ref2>< R            >< L            >< C            >
Comment card.   KOMPAR > 0.                       |C RESISTENCIAS DE LA  FUENTE DE SALIDA
Series R-L-C.   1.186E+00  1.888E-02  0.000E+00   |  LFA   FFA               1.1864          7.1187          0.                   1
Series R-L-C.   1.186E+00  1.888E-02  0.000E+00   |  LFB   FFB               1.1864          7.1187          0.                   1
Series R-L-C.   1.186E+00  1.888E-02  0.000E+00   |  LFC   FFC               1.1864          7.1187          0.                   1
Comment card.   KOMPAR > 0.                       |C RESISTENCIAS DE LA  FUENTE DE ENTRADA
Series R-L-C.   7.540E-04  6.871E-05  0.000E+00   |  FA    FA1               0.000754        0.025904        0.                   0
Series R-L-C.   7.540E-04  6.871E-05  0.000E+00   |  FB    FB1               0.000754        0.025904        0.                   0
Series R-L-C.   7.540E-04  6.871E-05  0.000E+00   |  FC    FC1               0.000754        0.025904        0.                   0
Comment card.   KOMPAR > 0.                       |C RESISTENCIA DE FALLA
Series R-L-C.   2.000E+01  0.000E+00  0.000E+00   |  FALLA                   20.00           0.0             0.                   1
Comment card.   KOMPAR > 0.                       |C REACTORES DE ENTRADA
Series R-L-C.   3.820E+00  4.053E+00  0.000E+00   |  R1A   R1R               3.8195          1527.8079       0.                   0
Series R-L-C.   3.820E+00  4.053E+00  0.000E+00   |  R1B   R1R               3.8195          1527.8079       0.                   0
Series R-L-C.   3.820E+00  4.053E+00  0.000E+00   |  R1C   R1R               3.8195          1527.8079       0.                   0
Series R-L-C.   6.366E+00  6.754E-01  0.000E+00   |  RR1                     6.3659          254.6346        0.                   0
Comment card.   KOMPAR > 0.                       |C REACTORES DE SALIDA
Series R-L-C.   3.820E+00  4.053E+00  0.000E+00   |  R2A   R2R               3.8195          1527.8079       0.                   0
Series R-L-C.   3.820E+00  4.053E+00  0.000E+00   |  R2B   R2R               3.8195          1527.8079       0.                   0
Series R-L-C.   3.820E+00  4.053E+00  0.000E+00   |  R2C   R2R               3.8195          1527.8079       0.                   0
Series R-L-C.   6.366E+00  6.754E-01  0.000E+00   |  R2R                     6.3659          254.6346        0.                   0
Comment card.   KOMPAR > 0.                       |C BANCO DE CAPACITORES
Series R-L-C.   0.000E+00  0.000E+00  3.472E-06   |  CCA                     0.              0.              1309.0642            0
Series R-L-C.   0.000E+00  0.000E+00  3.472E-06   |  CCB                     0.              0.              1309.0642            0
Series R-L-C.   0.000E+00  0.000E+00  3.472E-06   |  CCC                     0.              0.              1309.0642            0
Comment card.   KOMPAR > 0.                       |C ---------------------------------------------
Comment card.   KOMPAR > 0.                       |C INTERRUPTORES
Comment card.   KOMPAR > 0.                       |C ---------------------------------------------
New MOLDAT = 0     (data vintage).                |$VINTAGE,0
Blank card ending branches.  IBR, NTOT = 24  35   |BLANK BRANCH
Comment card.   KOMPAR > 0.                       |C        1         2         3         4         5         6         7         8
Comment card.   KOMPAR > 0.                       |C 345678901234567890123456789012345678901234567890123456789012345678901234567890
Comment card.   KOMPAR > 0.                       |C < n 1>< n 2>< Tclose ><Top/Tde ><   Ie   ><Vf/CLOP ><  type  >< n 1>< n 2>
Comment card.   KOMPAR > 0.                       |C SWITCH
Switch.  -1.00E+00  2.20E-01  0.00E+00  0.00E+00  |  FA1   INLA  -1.       0.22                                                   0
Switch.  -1.00E+00  2.20E-01  0.00E+00  0.00E+00  |  FB1   INLB  -1.       0.22                                                   0
Switch.  -1.00E+00  2.20E-01  0.00E+00  0.00E+00  |  FC1   INLC  -1.       0.22                                                   0
Switch.  -1.00E+00  1.00E+04  0.00E+00  0.00E+00  |  INLA  R1A   -1.       9999.                                                  0
Switch.  -1.00E+00  1.00E+04  0.00E+00  0.00E+00  |  INLB  R1B   -1.       9999.                                                  0
Switch.  -1.00E+00  1.00E+04  0.00E+00  0.00E+00  |  INLC  R1C   -1.       9999.                                                  0
Switch.   1.00E-01  1.00E+04  0.00E+00  0.00E+00  |  LPXA  FALLA 0.1       9999.                                                  1
Switch.   1.00E+02  1.00E+04  0.00E+00  0.00E+00  |  LPXB  FALLA 100.      9999.                                                  1
Switch.   1.00E+02  1.00E+04  0.00E+00  0.00E+00  |  LPXC  FALLA 100.      9999.                                                  1
Switch.  -1.00E+00  1.00E+04  0.00E+00  0.00E+00  |  L100A R2A   -1.       9999.                                                  0
Switch.  -1.00E+00  1.00E+04  0.00E+00  0.00E+00  |  L100B R2B   -1.       9999.                                                  0
Switch.  -1.00E+00  1.00E+04  0.00E+00  0.00E+00  |  L100C R2C   -1.       9999.                                                  0
Switch.  -1.00E+00  2.00E-01  0.00E+00  0.00E+00  |  L100A LFA   -1.       0.2                                                    0
Switch.  -1.00E+00  2.00E-01  0.00E+00  0.00E+00  |  L100B LFB   -1.       0.2                                                    0
Switch.  -1.00E+00  2.00E-01  0.00E+00  0.00E+00  |  L100C LFC   -1.       0.2                                                    0
Blank card ending switches.   KSWTCH = 15.        |BLANK SWITCH
Comment card.   KOMPAR > 0.                       |C        1         2         3         4         5         6         7         8
Comment card.   KOMPAR > 0.                       |C 345678901234567890123456789012345678901234567890123456789012345678901234567890
Comment card.   KOMPAR > 0.                       |C < n 1><>< Ampl.  >< Freq.  ><Phase/T0><   A1   ><   T1   >< TSTART >< TSTOP  >
Source.   4.40E+05  6.00E+01  1.90E+01 -1.00E+00  |14FA     0439948.34 60.       19.024                               -1.      1.E3
Source.   4.40E+05  6.00E+01 -1.01E+02 -1.00E+00  |14FB     0439948.34 60.       -100.976                             -1.      1.E3
Source.   4.40E+05  6.00E+01 -2.21E+02 -1.00E+00  |14FC     0439948.34 60.       -220.976                             -1.      1.E3
Source.   4.02E+05  6.00E+01 -1.26E+00 -1.00E+00  |14FFA    0402069.62 60.       -1.2631                              -1.      1.E3
Source.   4.02E+05  6.00E+01 -1.21E+02 -1.00E+00  |14FFB    0402069.62 60.       -121.2631                            -1.      1.E3
Source.   4.02E+05  6.00E+01 -2.41E+02 -1.00E+00  |14FFC    0402069.62 60.       -241.2631                            -1.      1.E3
Blank card ends electric sources.  KCONST = 6     |BLANK SOURCE
 
List of input elements that are connected to each node.   Only the physical connections of multi-phase lines are shown (capacitive
and inductive coupling are ignored).   Repeated entries indicate parallel connections.   Switches are included,  although sources
(including rotating machinery) are omitted -- except that U.M. usage produces extra,  internally-defined nodes  "UMXXXX".
--------------+------------------------------
From bus name |  Names of all adjacent busses.
--------------+------------------------------
       INLA   |LPXA  *FA1   *R1A   *
       LPXA   |INLA  *L100A *FALLA *
       INLB   |LPXB  *FB1   *R1B   *
       LPXB   |INLB  *L100B *FALLA *
       INLC   |LPXC  *FC1   *R1C   *
       LPXC   |INLC  *L100C *FALLA *
       L100A  |LPXA  *LFA   *R2A   *
       L100B  |LPXB  *LFB   *R2B   *
       L100C  |LPXC  *LFC   *R2C   *
       LFA    |L100A *FFA   *
       FFA    |LFA   *
       LFB    |L100B *FFB   *
       FFB    |LFB   *
       LFC    |L100C *FFC   *
       FFC    |LFC   *
       FA     |FA1   *
       FA1    |INLA  *FA    *
       FB     |FB1   *
       FB1    |INLB  *FB    *
       FC     |FC1   *
       FC1    |INLC  *FC    *
       FALLA  |TERRA *LPXA  *LPXB  *LPXC  *
       R1A    |INLA  *R1R   *
       R1R    |R1A   *R1B   *R1C   *
       R1B    |INLB  *R1R   *
       R1C    |INLC  *R1R   *
       RR1    |TERRA *
       R2A    |L100A *R2R   *
       R2R    |TERRA *R2A   *R2B   *R2C   *
       R2B    |L100B *R2R   *
       R2C    |L100C *R2R   *
       CCA    |TERRA *
       CCB    |TERRA *
       CCC    |TERRA *
       TERRA  |FALLA *RR1   *R2R   *CCA   *CCB   *CCC   *
--------------+------------------------------
Pi-equivalent branches of distributed circuits are added to the table of List Size 3 between indices  19   and  30.
 
Sinusoidal steady-state phasor solution, branch by branch.   All flows are away from a bus,  and the real part,  magnitude,  or  "P"
is printed above the imaginary part,  the angle,  or  "Q".   The first solution frequency  =  6.00000000E+01  Hertz.
  Bus K                        Phasor  node  voltage              Phasor  branch  current               Power flow       Power loss
             Bus M         Rectangular            Polar          Rectangular            Polar            P  and  Q        P  and  Q
 
 INLA                 415920.26612247  439938.16214562      1217.6337289644   1266.310545114      .278146297726E9  .430019740071E7
                      143373.35436084       19.0197667      347.72186982571       15.9378485       .14975829735E8 65874534.3590083
 
            LPXA      409602.04481492  409881.89088849      -1349.882790139  1393.2399067122      -.27384610033E9
                      15143.624459039        2.1173497      344.86793202968      165.6686332      -.80850364094E8
 
 INLB                 -83795.16595896  439938.16214562      -307.6808917617   1266.310545114      .278146297726E9  .430019740071E7
                      -431884.1935913     -100.9802333      -1228.362676701     -104.0621515       .14975829735E8 65874534.3590085
 
            LPXB      -191686.2589206  409881.89088849       973.6057851577  1393.2399067122      -.27384610033E9
                      -362297.5884813     -117.8826503      996.59882237677       45.6686332      -.80850364094E8
 
 INLC                 -332125.1001635  439938.16214562      -909.9528372027   1266.310545114      .278146297726E9  .430019740071E7
                      288510.83923042      139.0197667      880.64080687511      135.9378485       .14975829735E8 65874534.3590084
 
            LPXC      -217915.7858944  409881.89088849      376.27700498109  1393.2399067122      -.27384610033E9
                      347153.96402225      122.1173497      -1341.466754406      -74.3313668      -.80850364094E8
 
 LPXA                 409602.04481492  409881.89088849      1349.8827901388  1393.2399067122      .273846100325E9  539905.93466846
                      15143.624459039        2.1173497      -344.8679320297      -14.3313668       .80850364094E8 -4460797.3731979
 
            L100A     404676.36040726  404676.75565745      -1351.326253986  1415.0132790888      -.27330619439E9
                      565.59434800165        0.0800792      419.73793643869      162.7445869      -.85311161467E8
 
 LPXB                 -191686.2589206  409881.89088849      -973.6057851577  1393.2399067122      .273846100325E9  539905.93466846
                      -362297.5884813     -117.8826503      -996.5988223768     -134.3313668       .80850364094E8 -4460797.3731978
 
            L100B       -201848.36113  404676.75565745       1039.166842881  1415.0132790888      -.27330619439E9
                      -350742.8055977     -119.9199208      960.41389653342       42.7445869      -.85311161467E8
 
 LPXC                 -217915.7858944  409881.89088849      -376.2770049811  1393.2399067122      .273846100325E9  539905.93466841
                      347153.96402225      122.1173497      1341.4667544064      105.6686332       .80850364094E8 -4460797.3731978
 
            L100C     -202827.9992772  404676.75565745      312.15941110505  1415.0132790888      -.27330619439E9
                      350177.21124972      120.0800792      -1380.151832972      -77.2554131      -.85311161467E8
 
 LFA                  404676.36040726  404676.75565745      1350.2938793269  1359.1457777712      .273172210427E9  .109580486187E7
                      565.59434800165        0.0800792      -154.8666674446       -6.5427272      .317172989581E8  6575106.2628208
 
            FFA       401971.92240329        402069.62      -1350.293879327  1359.1457777712      -.27207640557E9
                      -8863.008876507       -1.2631000      154.86666744456      173.4572728      -.25142192695E8
 
 LFB                    -201848.36113  404676.75565745      -809.2654078699  1359.1457777712      .273172210427E9  .109580486187E7
                      -350742.8055977     -119.9199208      -1091.955468349     -126.5427272      .317172989581E8  6575106.2628207
 
            FFB       -208661.5520427        402069.62      809.26540786989  1359.1457777712      -.27207640557E9
                      -343686.3919711     -121.2631000      1091.9554683495       53.4572728      -.25142192695E8
 
 LFC                  -202827.9992772  404676.75565745       -541.028471457  1359.1457777712      .273172210427E9  .109580486187E7
                      350177.21124972      120.0800792       1246.822135794      113.4572728      .317172989581E8  6575106.2628207
 
            FFC       -193310.3703606        402069.62      541.02847145704  1359.1457777712      -.27207640557E9
                      352549.40084757      118.7369000      -1246.822135794      -66.5427272      -.25142192695E8
 
 FA                   415919.29391247        439948.34      1312.1562452331  1314.3394769533      .278305299539E9  651.26307427554
                      143407.40155273       19.0240000      75.724822703531        3.3028884      .783387513848E8    22374.4279523
 
            FA1       415920.26612247  439938.16214562      -1312.156245233  1314.3394769533      -.27830464828E9
                      143373.35436084       19.0197667      -75.72482270353     -176.6971116      -.78316376957E8
 
 FB                   -83765.19412085        439948.34      -590.4985024563  1314.3394769517      .278305299538E9    651.263074274
                      -431900.3752287     -100.9760000      -1174.223053457     -116.6971116      .783387513844E8    22374.4279522
 
            FB1       -83795.16595896  439938.16214562      590.49850245629  1314.3394769517      -.27830464828E9
                      -431884.1935913     -100.9802333      1174.2230534573       63.3028884      -.78316376956E8
 
 FC                   -332154.0997916        439948.34      -721.6577427757  1314.3394769522      .278305299538E9  651.26307427444
                      288492.97367592      139.0240000      1098.4982307527      123.3028884      .783387513844E8    22374.4279523
 
            FC1       -332125.1001635  439938.16214562       721.6577427757  1314.3394769522      -.27830464828E9
                      288510.83923042      139.0197667      -1098.498230753      -56.6971116      -.78316376956E8
 
 R1A                  415920.26612247  439938.16214562      94.522516268129  287.95294706849      158350.54925064  158350.54925064
                      143373.35436084       19.0197667      -271.9970471233      -70.8369948       .63340547222E8 63340547.2220099
 
            R1R       -.743695394E-11  .8383470047E-11      -94.52251626813  287.95294706849      -.1747885576E-9
                      -.386966228E-11     -152.5107354      271.99704712326      109.1630052       .1194299863E-8
 
 R1B                  -83795.16595896  439938.16214562      -282.8176106972  287.95294706849      158350.54925064  158350.54925064
                      -431884.1935913     -100.9802333      54.139623243801      169.1630052       .63340547222E8 63340547.2220099
 
            R1R       -.743695394E-11  .8383470047E-11      282.81761069716  287.95294706849      -.9468997424E-9
                      -.386966228E-11     -152.5107354       -54.1396232438      -10.8369948      -.7485212627E-9
 
 R1C                  -332125.1001635  439938.16214562      188.29509442903  287.95294706849      158350.54925064  158350.54925064
                      288510.83923042      139.0197667      217.85742387946       49.1630052       .63340547222E8 63340547.2220099
 
            R1R       -.743695394E-11  .8383470047E-11       -188.295094429  287.95294706849      .11216882999E-8
                      -.386966228E-11     -152.5107354      -217.8574238795     -130.8369948      -.4457786004E-9
 
 R2A                  404676.36040726  404676.75565745      1.0323746590947  264.87328090239      133983.96346402  133983.96346402
                      565.59434800165        0.0800792      -264.8712689941      -89.7766824      .535938625091E8 53593862.5091348
 
            R2R       .8171796573E-11  .8809720451E-11      -1.032374659095  264.87328090239      -.4401088027E-9
                      -.329133942E-11      -21.9380060      264.87126899413       90.2233176      -.1080538116E-8
 
 R2B                    -201848.36113  404676.75565745      -229.9014350111  264.87328090239      133983.96346402  133983.96346402
                      -350742.8055977     -119.9199208      131.54157181606      150.2233176      .535938625091E8 53593862.5091348
 
            R2R       .8171796573E-11  .8809720451E-11      229.90143501108  264.87328090239      .11558278599E-8
                      -.329133942E-11      -21.9380060      -131.5415718161      -29.7766824      .15912365462E-9
 
 R2C                  -202827.9992772  404676.75565745      228.86906035199  264.87328090239      133983.96346402  133983.96346402
                      350177.21124972      120.0800792      133.32969717806       30.2233176      .535938625091E8 53593862.5091348
 
            R2R       .8171796573E-11  .8809720451E-11       -228.869060352  264.87328090239      -.7157190572E-9
                      -.329133942E-11      -21.9380060      -133.3296971781     -149.7766824      .92141446177E-9
 
 R2R                  .8171796573E-11  .8809720451E-11      -.121158522E-13  .3458669275E-13      .3807569928E-26  .3807569928E-26
                      -.329133942E-11      -21.9380060      -.323951453E-13     -110.5059020      .1523019598E-24        0.0000000
 
            TERRA                 0.0              0.0      .1211585216E-13  .3458669275E-13                  0.0
                                  0.0              0.0      .3239514534E-13       69.4940980                  0.0
     Total network loss  P-loss  by summing injections =   1.868668191911E+07
 
Output for steady-state phasor switch currents.
      Node-K    Node-M            I-real            I-imag            I-magn          Degrees        Power            Reactive
      FA1       INLA          1.31215625E+03    7.57248227E+01    1.31433948E+03       3.3029    2.78304648E+08    7.83163770E+07
      FB1       INLB         -5.90498502E+02   -1.17422305E+03    1.31433948E+03    -116.6971    2.78304648E+08    7.83163770E+07
      FC1       INLC         -7.21657743E+02    1.09849823E+03    1.31433948E+03     123.3029    2.78304648E+08    7.83163770E+07
      INLA      R1A           9.45225163E+01   -2.71997047E+02    2.87952947E+02     -70.8370    1.58350549E+05    6.33405472E+07
      INLB      R1B          -2.82817611E+02    5.41396232E+01    2.87952947E+02     169.1630    1.58350549E+05    6.33405472E+07
      INLC      R1C           1.88295094E+02    2.17857424E+02    2.87952947E+02      49.1630    1.58350550E+05    6.33405472E+07
      LPXA      FALLA             Open              Open              Open             Open          Open              Open
      LPXB      FALLA             Open              Open              Open             Open          Open              Open
      LPXC      FALLA             Open              Open              Open             Open          Open              Open
      L100A     R2A           1.03237466E+00   -2.64871269E+02    2.64873281E+02     -89.7767    1.33983963E+05    5.35938625E+07
      L100B     R2B          -2.29901435E+02    1.31541572E+02    2.64873281E+02     150.2233    1.33983963E+05    5.35938625E+07
      L100C     R2C           2.28869060E+02    1.33329697E+02    2.64873281E+02      30.2233    1.33983963E+05    5.35938625E+07
      L100A     LFA           1.35029388E+03   -1.54866667E+02    1.35914578E+03      -6.5427    2.73172210E+08    3.17172990E+07
      L100B     LFB          -8.09265408E+02   -1.09195547E+03    1.35914578E+03    -126.5427    2.73172210E+08    3.17172990E+07
      L100C     LFC          -5.41028471E+02    1.24682214E+03    1.35914578E+03     113.4573    2.73172210E+08    3.17172990E+07
 
Solution at nodes with known voltage.   Nodes that are shorted together by switches are shown as a group of names, with the printed
result applying to the composite group.   The entry "MVA" is  SQRT( P**2 + Q**2 )  in units of power,  while  "P.F."  is the
associated power factor.
              Node                Source  node  voltage             Injected  source  current              Injected  source  power
              name         Rectangular            Polar          Rectangular            Polar            P  and  Q    MVA and P.F.
 
              FFA     401971.92240329        402069.62      -1350.293879327  1359.1457777712      -.27207640557E9  .273235613197E9
                      -8863.008876507       -1.2631000      154.86666744456      173.4572728      -.25142192695E8       -0.9957575
 
              FFB     -208661.5520427        402069.62      809.26540786988  1359.1457777712      -.27207640557E9  .273235613197E9
                      -343686.3919711     -121.2631000      1091.9554683495       53.4572728      -.25142192695E8       -0.9957575
 
              FFC     -193310.3703606        402069.62      541.02847145705  1359.1457777712      -.27207640557E9  .273235613197E9
                      352549.40084757      118.7369000      -1246.822135794      -66.5427272      -.25142192695E8       -0.9957575
 
              FA      415919.29391247        439948.34      1312.1562452328   1314.339476953      .278305299539E9  .289120735541E9
                      143407.40155273       19.0240000      75.724822703306        3.3028884      .783387513848E8        0.9625920
 
              FB      -83765.19412085        439948.34      -590.4985024554  1314.3394769512      .278305299538E9  .289120735541E9
                      -431900.3752287     -100.9760000      -1174.223053457     -116.6971116      .783387513842E8        0.9625920
 
              FC      -332154.0997916        439948.34      -721.6577427764  1314.3394769533      .278305299539E9  .289120735541E9
                      288492.97367592      139.0240000      1098.4982307536      123.3028884      .783387513844E8        0.9625920
 
Comment card.   KOMPAR > 0.                       |C <    ><    ><    ><    ><    ><    ><    ><    ><    ><    ><    ><    ><    >
Card of names for time-step loop output.          |  FA    FB    FC    FA1   FB1   FC1   L100A L100B L100C FFA   FFB   FFC
Card of names for time-step loop output.          |  LPXA  LPXB  LPXC  INLA  INLB  INLC  LFA   LFB   LFC
Blank card ending requests for output variables.  |BLANK OUTPUT
 
Column headings for the  28   EMTP output variables follow.  These are divided among the 5 possible classes as follows ....
  First  21     output variables are electric-network voltage differences (upper voltage minus lower voltage);
  Next   7     output variables are branch currents (flowing from the upper node to the lower node);
   Step      Time      FA         FB         FC         FA1        FB1        FC1        L100A      L100B      L100C      FFA
 
 
                       FFB        FFC        LPXA       LPXB       LPXC       INLA       INLB       INLC       LFA        LFB
 
 
                       LFC        LPXA       LPXB       LPXC       LFA        LFB        LFC        FALLA
                                  FALLA      FALLA      FALLA      FFA        FFB        FFC        TERRA
 ***      Phasor I(0) =  1.3121562E+03                     Switch  "FA1   "  to  "INLA  "  closed in the steady-state.
 ***      Phasor I(0) = -5.9049850E+02                     Switch  "FB1   "  to  "INLB  "  closed in the steady-state.
 ***      Phasor I(0) = -7.2165774E+02                     Switch  "FC1   "  to  "INLC  "  closed in the steady-state.
 ***      Phasor I(0) =  9.4522516E+01                     Switch  "INLA  "  to  "R1A   "  closed in the steady-state.
 ***      Phasor I(0) = -2.8281761E+02                     Switch  "INLB  "  to  "R1B   "  closed in the steady-state.
 ***      Phasor I(0) =  1.8829509E+02                     Switch  "INLC  "  to  "R1C   "  closed in the steady-state.
 ***      Phasor I(0) =  1.0323747E+00                     Switch  "L100A "  to  "R2A   "  closed in the steady-state.
 ***      Phasor I(0) = -2.2990144E+02                     Switch  "L100B "  to  "R2B   "  closed in the steady-state.
 ***      Phasor I(0) =  2.2886906E+02                     Switch  "L100C "  to  "R2C   "  closed in the steady-state.
 ***      Phasor I(0) =  1.3502939E+03                     Switch  "L100A "  to  "LFA   "  closed in the steady-state.
 ***      Phasor I(0) = -8.0926541E+02                     Switch  "L100B "  to  "LFB   "  closed in the steady-state.
 ***      Phasor I(0) = -5.4102847E+02                     Switch  "L100C "  to  "LFC   "  closed in the steady-state.
      0       0.0  415919.294 -83765.194  -332154.1 415920.266 -83795.166  -332125.1  404676.36 -201848.36   -202828. 401971.922
                   -208661.55 -193310.37 409602.045 -191686.26 -217915.79 415920.266 -83795.166  -332125.1  404676.36 -201848.36
                     -202828.        0.0        0.0        0.0 1350.29388 -809.26541 -541.02847        0.0
    500      .025  -415919.29 83765.1941   332154.1 -415920.28 83795.1757 332125.102 -404672.46 201846.891 202825.568 -401971.92
                   208661.552  193310.37 -409607.69 191694.094 217913.593 -415920.28 83795.1757 332125.102 -404672.46 201846.891
                   202825.568        0.0        0.0        0.0 -1350.1669 808.896136 541.270732        0.0
   1000       .05  415919.294 -83765.194  -332154.1 415920.274 -83795.171  -332125.1 404676.553 -201848.53 -202828.02 401971.922
                   -208661.55 -193310.37 409615.872 -191696.91 -217918.96 415920.274 -83795.171  -332125.1 404676.553 -201848.53
                   -202828.02        0.0        0.0        0.0 1350.22621  -809.1117 -541.11451        0.0
   1500      .075  -415919.29 83765.1941   332154.1 -415920.27 83795.1696 332125.099 -404673.95 201847.052 202826.902 -401971.92
                   208661.552  193310.37 -409609.59   191693.5 217916.087 -415920.27 83795.1696 332125.099 -404673.95 201847.052
                   202826.902        0.0        0.0        0.0 -1350.2206 809.003132 541.217435        0.0
   2000       0.1  415919.294 -83765.194  -332154.1 415920.276 -83795.174  -332125.1 404675.213 -201847.91  -202827.3 401971.922
                   -208661.55 -193310.37 409612.928 -191695.69 -217917.24 415920.276 -83795.174  -332125.1 404675.213 -201847.91
                    -202827.3        0.0        0.0        0.0 1350.20229 -809.04905 -541.15323        0.0
 ***                                                             Close switch  "LPXA  "  to  "FALLA "  after  1.00050000E-01  sec.
   2500      .125  -415919.29 83765.1941   332154.1 -415903.73 83790.5637 332120.494 -350289.33 203961.682 204941.456 -401971.92
                   208661.552  193310.37 -146559.38 329488.647 355711.142 -415903.73 83790.5637 332120.494 -350289.33 203961.682
                   204941.456 -7327.9692        0.0        0.0 5158.92036 862.328626 594.481612 -7327.9692
   3000       .15  415919.294 -83765.194  -332154.1  415884.41 -83788.526 -332118.45 349302.458 -202830.98 -203810.51 401971.922
                   -208661.55 -193310.37 147167.124 -323584.53 -349806.44  415884.41 -83788.526 -332118.45 349302.458 -202830.98
                   -203810.51 7358.35618        0.0        0.0  -5131.861 -882.04645 -614.18609 7358.35618
   3500      .175  -415919.29 83765.1941   332154.1 -415882.81 83790.4544 332120.383 -349414.13  202534.82 203514.389 -401971.92
                   208661.552  193310.37 -147996.64 322591.458 348813.461 -415882.81 83790.4544 332120.383 -349414.13  202534.82
                   203514.389 -7399.8321        0.0        0.0 5100.97253 912.961399 645.096123 -7399.8321
   4000       0.2  415919.294 -83765.194  -332154.1 415886.651 -83791.726 -332121.66 349827.429 -202945.96 -203925.63 401971.922
                   -208661.55 -193310.37 148218.286 -324422.91 -350645.15 415886.651 -83791.726 -332121.66 349827.429 -202945.96
                   -203925.63 7410.91432        0.0        0.0 -5096.9244 -921.42108 -653.56862 7410.91432
 ***                                                             Open  switch  "L100B "  to  "LFB   "  after  2.02100000E-01  sec.
 ***                                                             Open  switch  "L100C "  to  "LFC   "  after  2.06150000E-01  sec.
 ***                                                             Open  switch  "L100A "  to  "LFA   "  after  2.06450000E-01  sec.
 ***                                                             Open  switch  "FB1   "  to  "INLB  "  after  2.21450000E-01  sec.
 ***                                                             Open  switch  "FC1   "  to  "INLC  "  after  2.22350000E-01  sec.
 ***                                                             Open  switch  "FA1   "  to  "INLA  "  after  2.23200000E-01  sec.
   4500      .225  -415919.29 83765.1941   332154.1 -415824.18 83743.7484 332062.858 -31898.071 275726.582 394470.187 -401971.92
                   208661.552  193310.37 -17906.164 295948.557 409536.302 65205.2525 325843.297 394271.488  -547045.2 221028.322
                   164757.731 -895.30821        0.0        0.0 -.1449E-13 -.1086E-13 -.6037E-14 -895.30821
   5000       .25  415919.294 -83765.194  -332154.1 416014.408  -83786.64 -332245.34 -5120.9357 -88862.372 561362.339 401971.922
                   -208661.55 -193310.37 -1708.3027 -86503.544 566774.756 91243.1767 -14256.783 637380.312  256898.64 -196294.78
                   -221863.01 -85.415133        0.0        0.0 .32474E-14 -.1483E-13 .45242E-14 -85.415133
   5500      .275  -415919.29 83765.1941   332154.1 -415824.18 83743.7485 332062.858 -2285.7508  201180.38 46024.6598 -401971.92
                   208661.552  193310.37 984.918772 205818.596 49924.7626 35333.4619 220575.238 90428.8579  -547045.2 221028.322
                   164757.731 49.2459386        0.0        0.0 -.9756E-13 .52701E-14 -.1008E-13 49.2459386
   6000       0.3  415919.294 -83765.194  -332154.1 416014.408  -83786.64 -332245.34 -436.97579  313222.67 -285728.37 401971.922
                   -208661.55 -193310.37 1545.58108 317804.549 -285699.83 13284.2252  339337.28 -281014.79  256898.64 -196294.78
                   -221863.01 77.2790538        0.0        0.0 .30809E-14 .12887E-13 -.1059E-13 77.2790538
   6500      .325  -415919.29 83765.1941   332154.1 -415824.18 83743.7485 332062.858 947.819092  -174023.1 25366.3758 -401971.92
                   208661.552  193310.37 1438.04688 -174680.15 25991.4855 4271.53429 -174690.21 28863.2106  -547045.2 221028.322
                   164757.731 71.9023439        0.0        0.0   -.69E-13 .12887E-13 -.8861E-14 71.9023439
   7000       .35  415919.294 -83765.194  -332154.1 416014.408  -83786.64 -332245.34 1376.58745 -421931.16 143492.227 401971.922
                   -208661.55 -193310.37 1044.48616 -425154.89 144361.763 -8115.4922 -432785.67  140802.55  256898.64 -196294.78
                   -221863.01 52.2243081        0.0        0.0 -.2111E-13 .12084E-13  -.297E-14 52.2243081
   7500      .375  -415919.29 83765.1941   332154.1 -415824.18 83743.7485 332062.858 1502.87973  -44748.11 -294108.61 -401971.92
                   208661.552  193310.37 422.236504 -46173.783 -297031.93 -14643.797 -53376.907 -311853.61  -547045.2 221028.322
                   164757.731 21.1118252        0.0        0.0  -.175E-13 .15028E-13  -.246E-14 21.1118252
   8000       0.4  415919.294 -83765.194  -332154.1 416014.408  -83786.64 -332245.34 1326.44955 95402.4918  -433374.4 401971.922
                   -208661.55 -193310.37 -199.06509 94403.1224 -437725.61 -17383.146 77324.4992 -448269.73  256898.64 -196294.78
                   -221863.01 -9.9532545        0.0        0.0 -.1391E-13 .12303E-13 .70777E-14 -9.9532545
   8500      .425  -415919.29 83765.1941   332154.1 -415824.18 83743.7485 332062.858  841.42362 -293623.06 3382.98989 -401971.92
                   208661.552  193310.37  -747.1243 -297117.12 1713.06042 -18201.218 -311201.43  -11895.66  -547045.2 221028.322
                   164757.731 -37.356215        0.0        0.0 .20803E-13 -.6776E-14 .13163E-13 -37.356215
   9000       .45  415919.294 -83765.194  -332154.1 416014.408  -83786.64 -332245.34 282.729777 -345737.34 136045.426 401971.922
                   -208661.55 -193310.37 -1142.1025  -349477.7 135448.257 -15827.164 -358093.24 120028.857  256898.64 -196294.78
                   -221863.01 -57.105126        0.0        0.0 -.2066E-13 .11597E-13 .48572E-15 -57.105126
   9500      .475  -415919.29 83765.1941   332154.1 -415824.18 83743.7485 332062.858  -253.3073 111543.369 -226637.74 -401971.92
                   208661.552  193310.37 -1333.6571 111013.582 -229145.73 -11655.106 100300.958 -236064.13  -547045.2 221028.322
                   164757.731 -66.682853        0.0        0.0 -.5726E-13 .12618E-13 -.1008E-13 -66.682853
  10000       0.5  415919.294 -83765.194  -332154.1 416014.408  -83786.64 -332245.34 -699.60914 203899.189 -227018.15 401971.922
                   -208661.55 -193310.37 -1331.8243 204599.199 -229233.75 -6856.2693 197951.364 -232492.95  256898.64 -196294.78
                   -221863.01 -66.591216        0.0        0.0 -.4816E-14 .23731E-14 -.7837E-14 -66.591216
  10500      .525  -415919.29 83765.1941   332154.1 -415824.18 83743.7485 332062.858 -985.76787 -158464.82 212395.537 -401971.92
                   208661.552  193310.37 -1167.3109 -159606.18 213452.292 -1963.9955 -158987.39 210484.761  -547045.2 221028.322
                   164757.731 -58.365544        0.0        0.0 -.5429E-13 -.5438E-14 .24078E-14 -58.365544
  11000       .55  415919.294 -83765.194  -332154.1 416014.408  -83786.64 -332245.34  -1098.625 -135763.39 243598.441 401971.922
                   -208661.55 -193310.37 -888.32837 -136525.65  245443.38 2212.24927 -133651.06 246613.719  256898.64 -196294.78
                   -221863.01 -44.416419        0.0        0.0 .91455E-14 .16293E-13 -.8545E-14 -44.416419
  11500      .575  -415919.29 83765.1941   332154.1 -415824.18 83743.7485 332062.858 -1053.5238 266066.266 -130627.48 -401971.92
                   208661.552  193310.37 -554.43024 268219.555 -130907.13 5190.65789 271299.036 -125395.21  -547045.2 221028.322
                   164757.731 -27.721512        0.0        0.0 -.2942E-14 .86754E-14  .4767E-14 -27.721512
  12000       0.6  415919.294 -83765.194  -332154.1 416014.408  -83786.64 -332245.34 -881.34518 232790.559 -94694.056 401971.922
                   -208661.55 -193310.37 -220.71565 235049.562 -94713.051 6834.37124 239650.728 -88326.966  256898.64 -196294.78
                   -221863.01 -11.035782        0.0        0.0 -.1527E-14 .35388E-15 -.8032E-14 -11.035782
  12500      .625  -415919.29 83765.1941   332154.1 -415824.18 83743.7485 332062.858  -629.4709 -148313.61 268694.253 -401971.92
                   208661.552  193310.37 68.0596988 -148501.13 271098.019 7157.08529 -141746.34 275671.374  -547045.2 221028.322
                   164757.731 3.40298494        0.0        0.0  .1589E-13  -.573E-14  -.976E-14 3.40298494
  13000       .65  415919.294 -83765.194  -332154.1 416014.408  -83786.64 -332245.34 -347.66481 -93198.755 182099.425 401971.922
                   -208661.55 -193310.37 281.359264  -93224.22 184008.032 6375.04926  -87231.38 187990.262  256898.64 -196294.78
                   -221863.01 14.0679632        0.0        0.0 -.1583E-13 .24945E-14 -.1212E-13 14.0679632
  13500      .675  -415919.29 83765.1941   332154.1 -415824.18 83743.7485 332062.858 -79.787083 241323.512 -190385.15 -401971.92
                   208661.552  193310.37  405.38785 243346.405  -191059.9 4831.19357 245805.829 -186061.97  -547045.2 221028.322
                   164757.731 20.2693925        0.0        0.0 -.8996E-13 .69476E-14 -.1628E-13 20.2693925
  14000       0.7  415919.294 -83765.194  -332154.1 416014.408  -83786.64 -332245.34 139.952854 118157.739 -104922.17 401971.922
                   -208661.55 -193310.37 441.543308 119320.668 -105356.58 2896.78435 120620.795 -102285.62  256898.64 -196294.78
                   -221863.01 22.0771654        0.0        0.0  -.501E-14 -.1315E-13 .73483E-14 22.0771654
  14500      .725  -415919.29 83765.1941   332154.1 -415824.18 83743.7485 332062.858 290.839809 -229743.79 210899.858 -401971.92
                   208661.552  193310.37 403.179125 -231064.03 212349.814 928.434215 -229011.74 211570.382  -547045.2 221028.322
                   164757.731 20.1589562        0.0        0.0 -.9467E-13 .16584E-13    -.1E-13 20.1589562
  15000       .75  415919.294 -83765.194  -332154.1 416014.408  -83786.64 -332245.34 366.036602 -106656.57 64843.6533 401971.922
                   -208661.55 -193310.37  311.51159 -107475.25 65295.3233 -782.14696 -107513.27  63942.852  256898.64 -196294.78
                   -221863.01 15.5755795        0.0        0.0 -.5815E-14 -.1386E-13 -.1154E-13 15.5755795
  15500      .775  -415919.29 83765.1941   332154.1 -415824.18 83743.7485 332062.858 370.604549 194905.545 -249097.54 -401971.92
                   208661.552  193310.37 190.992713  195955.38 -250858.21 -2040.8686 192853.386 -251079.09  -547045.2 221028.322
                   164757.731 9.54963566        0.0        0.0 .40676E-13 .18019E-13 -.1485E-14 9.54963566
  16000       0.8  415919.294 -83765.194  -332154.1 416014.408  -83786.64 -332245.34 318.595624 32461.2106 -88778.297 401971.922
                   -208661.55 -193310.37 65.1821823 32493.8029 -89694.008 -2756.6455 29841.6264 -91434.569  256898.64 -196294.78
                   -221863.01 3.25910912        0.0        0.0 -.1507E-13 .15786E-15 .17764E-14 3.25910912
  16500      .825  -415919.29 83765.1941   332154.1 -415824.18 83743.7485 332062.858 229.269219 -246042.28 196112.693 -401971.92
                   208661.552  193310.37 -46.402181 -247898.15 197074.985 -2934.4567 -248793.28 193351.414  -547045.2 221028.322
                   164757.731  -2.320109        0.0        0.0 -.1885E-13 .73604E-14 .58148E-14  -2.320109
  17000       .85  415919.294 -83765.194  -332154.1 416014.408  -83786.64 -332245.34 123.274149 -55222.128 17575.6823 401971.922
                   -208661.55 -193310.37 -130.26891 -55925.463 17505.8892 -2656.0206 -57690.992 15134.7232  256898.64 -196294.78
                   -221863.01 -6.5134457        0.0        0.0 .10353E-13 -.1396E-13 -.8785E-14 -6.5134457
  17500      .875  -415919.29 83765.1941   332154.1 -415824.18 83743.7485 332062.858 19.4561785 206541.385 -228950.12 -401971.92
                   208661.552  193310.37 -179.66944 207655.525 -230629.56 -2052.1759 204688.883 -230820.23  -547045.2 221028.322
                   164757.731 -8.9834721        0.0        0.0  -.754E-13 -.1639E-13 .14381E-13 -8.9834721
  18000       0.9  415919.294 -83765.194  -332154.1 416014.408  -83786.64 -332245.34 -67.474422 9786.60722 -16781.309 401971.922
                   -208661.55 -193310.37 -194.20232 9793.49473 -17105.681 -1274.4072 8668.65526 -17901.345  256898.64 -196294.78
                   -221863.01  -9.710116        0.0        0.0 .15196E-13 .66561E-14 .93189E-14  -9.710116
  18500      .925  -415919.29 83765.1941   332154.1 -415824.18 83743.7485 332062.858 -128.22278 -209022.58 215369.201 -401971.92
                   208661.552  193310.37 -178.59474  -210428.4 216701.708 -469.04187 -209391.45 215009.479  -547045.2 221028.322
                   164757.731 -8.9297368        0.0        0.0 -.4441E-14 .25917E-14 -.9881E-14 -8.9297368
  19000       .95  415919.294 -83765.194  -332154.1 416014.408  -83786.64 -332245.34 -159.14725 16599.5976 -486.65571 401971.922
                   -208661.55 -193310.37 -140.99073  16643.878 -398.10102 242.843422 16894.9215  -198.1674  256898.64 -196294.78
                   -221863.01 -7.0495363        0.0        0.0 -.1402E-13 .15999E-13  .8174E-14 -7.0495363
  19500      .975  -415919.29 83765.1941   332154.1 -415824.18 83743.7485 332062.858 -161.64638 215427.458 -193812.11 -401971.92
                   208661.552  193310.37 -91.091726 216894.888 -195000.65 777.747279 216202.036 -193036.67  -547045.2 221028.322
                   164757.731 -4.5545863        0.0        0.0  .7494E-14 .42223E-14 -.1353E-13 -4.5545863
  % % % % % %   Final time step,  PLTFIL  dumps plot data to ".PL4" disk file.
  % % % % % %   Final time step,  PLTFIL  dumps plot data to ".PL4" disk file.
  +++  Time-sharing disabled.   Send  user-keyed interrupt to silence alarm.
   Current values.  INDBUF  INDBEG  LIMBUF  MFLUSH  NUMDCD  KCARD1  KCARD2
                    580079      50  840000    1000     122       1     124
Plot timespan now in memory (in sec) = 0.00000000E+00   1.00000000E+00
   ++++  Begin plot-data copy from memory to disk.   MFLUSH, INDBUF, N4, Tbeg,  Tend = 1001  580079       1  -1.00000E+00
1.00000E+19
SPY:  20000       1.0  415919.294 -83765.194  -332154.1 416014.408  -83786.64 -332245.34 -140.94623 -17460.783 40375.6292 401971.922
                   -208661.55 -193310.37 -38.447344 -17395.322 40666.0156 1094.22828 -16411.261 41426.4827  256898.64 -196294.78
                   -221863.01 -1.9223672        0.0        0.0 -.1471E-14 -.6453E-15 -.4309E-14 -1.9223672
 
Extrema of output variables follow.   Order and column positioning are the same as for the preceding time-step loop output.
Variable maxima :   439948.13 439946.264 439948.066 440037.262 440514.529 440152.468 404676.553 665678.589 747619.309 402067.704
                   402069.422 402069.376 409894.702 737955.367 734914.797 439937.929 581785.964 656885.022 547140.849 422165.808
                   430616.861 10630.1539        0.0        0.0 8634.80339 1477.51958 1706.50999 10630.1539
Times of maxima :      .03245       .038      .9769      .9658      .1047      .1102        .05      .2045     .20985      .9834
                       .98895      .0445      .0499     .20465     .20965     .08245     .31855      .2496     .95005     .10535
                       .97785      .2021        0.0        0.0      .1106     .10435     .11155      .2021
Variable minima :  -439948.13 -439946.26 -439948.07 -440198.01 -440039.21 -440930.68 -404673.95 -773844.08 -753590.27  -402067.7
                   -402069.42 -402069.38 -409890.41  -774334.2 -751845.24 -440198.01 -566846.88 -692298.04 -547140.99 -420438.39
                   -469937.54 -11072.535        0.0        0.0 -8288.0067 -1465.3582 -1957.0202 -11072.535
Times of minima :      .05745       .063      .9519     .10745       .213     .10195       .075       .213     .21865      .9584
                       .96395      .0695     .05825      .2128      .2186     .10745     .32925     .25975      .9584      .1142
                       .10245     .11045        0.0        0.0     .13575      .1145     .10265     .11045
 
Blank card terminating all plot cards.            |BLANK PLOT
Actual List Sizes for the preceding solution follow.       23-Jan-20  16:49:31
   Size  1-10:    35    24    30     6   122    15    42    99     0     0
   Size 11-20:     0    28 -9999 -9999 -9999     0     0     0    23     0
   Size 21-30:     9     0   144     0 -9999     9 -9999 -9999 -9999     0
Seconds for overlays  1-5  :     0.000     0.000     0.000  -- (CP: Wait; Real)
Seconds for overlays  6-11 :     0.000     0.000     0.000
Seconds for overlays 12-15 :     0.000     0.000     0.000
Seconds for time-step loop :     1.203     0.000     1.203
Seconds after DELTAT-loop  :     0.000     0.000     0.000
                               ---------------------------
                   Totals  :     1.203     0.000     1.203
 
